REMARK SMILES CC(=O)C[C@@H](c1ccccc1)c1c(O)c2ccccc2oc1=O
REMARK SMILES IDX 5 1 4 2 2 3 1 4 3 5 6 6 7 7 11 8 8 9 10 10 9 11 12 12 13 13
REMARK SMILES IDX 22 14 15 15 21 16 23 17 20 18 16 19 19 20 17 21 18 22 14 23
REMARK H PARENT 14 24
REMARK Flexibility Score: inf
ROOT
ATOM      1  C   UNL A   1       3.214   0.718   1.262  1.00  0.00     0.068 C 
ENDROOT
BRANCH   1   2
ATOM      2  C   UNL A   1       2.247   0.908   2.475  1.00  0.00     0.088 C 
BRANCH   2   3
ATOM      3  C   UNL A   1       2.913   1.342   3.778  1.00  0.00     0.130 C 
ATOM      4  C   UNL A   1       3.888   0.497   4.543  1.00  0.00     0.087 C 
ATOM      5  O   UNL A   1       2.650   2.451   4.220  1.00  0.00    -0.300 OA
ENDBRANCH   2   3
ENDBRANCH   1   2
BRANCH   1   6
ATOM      6  C   UNL A   1       4.182   1.910   1.230  1.00  0.00    -0.040 A 
ATOM      7  C   UNL A   1       5.572   1.763   1.441  1.00  0.00     0.004 A 
ATOM      8  C   UNL A   1       3.674   3.203   0.996  1.00  0.00     0.004 A 
ATOM      9  C   UNL A   1       6.417   2.876   1.412  1.00  0.00     0.000 A 
ATOM     10  C   UNL A   1       4.525   4.311   0.968  1.00  0.00     0.000 A 
ATOM     11  C   UNL A   1       5.895   4.148   1.175  1.00  0.00     0.000 A 
ENDBRANCH   1   6
BRANCH   1  12
ATOM     12  C   UNL A   1       3.913  -0.655   1.057  1.00  0.00     0.088 A 
ATOM     13  C   UNL A   1       4.693  -0.869  -0.124  1.00  0.00     0.137 A 
ATOM     14  C   UNL A   1       3.799  -1.763   1.944  1.00  0.00     0.343 A 
ATOM     15  C   UNL A   1       5.338  -2.100  -0.328  1.00  0.00     0.060 A 
ATOM     16  O   UNL A   1       4.429  -2.906   1.701  1.00  0.00    -0.422 OA
ATOM     17  O   UNL A   1       3.107  -1.711   2.937  1.00  0.00    -0.246 OA
ATOM     18  C   UNL A   1       5.182  -3.112   0.635  1.00  0.00     0.142 A 
ATOM     19  C   UNL A   1       6.131  -2.350  -1.466  1.00  0.00     0.016 A 
ATOM     20  C   UNL A   1       5.811  -4.351   0.463  1.00  0.00     0.048 A 
ATOM     21  C   UNL A   1       6.756  -3.589  -1.630  1.00  0.00     0.001 A 
ATOM     22  C   UNL A   1       6.598  -4.588  -0.666  1.00  0.00     0.004 A 
BRANCH  13  23
ATOM     23  O   UNL A   1       4.829   0.080  -1.083  1.00  0.00    -0.507 OA
ATOM     24  H   UNL A   1       4.381   0.933  -1.095  1.00  0.00     0.293 HD
ENDBRANCH  13  23
ENDBRANCH   1  12
TORSDOF 5
