MODEL 1
REMARK VINA RESULT:   -11.327      0.000      0.000
REMARK INTER + INTRA:         -14.955
REMARK INTER:                 -14.306
REMARK INTRA:                  -0.649
REMARK UNBOUND:                -0.649
REMARK SMILES CC(=O)C[C@@H](c1ccccc1)c1c(O)c2ccccc2oc1=O
REMARK SMILES IDX 5 1 4 2 2 3 1 4 3 5 6 6 7 7 11 8 8 9 10 10 9 11 12 12 13 13
REMARK SMILES IDX 22 14 15 15 21 16 23 17 20 18 16 19 19 20 17 21 18 22 14 23
REMARK H PARENT 14 24
REMARK Flexibility Score: inf
ROOT
ATOM      1  C   UNL A   1      -9.118  26.482  56.906  1.00  0.00     0.068 C 
ENDROOT
BRANCH   1   2
ATOM      2  C   UNL A   1      -9.356  26.062  58.393  1.00  0.00     0.088 C 
BRANCH   2   3
ATOM      3  C   UNL A   1      -8.434  26.724  59.413  1.00  0.00     0.130 C 
ATOM      4  C   UNL A   1      -8.060  26.108  60.729  1.00  0.00     0.087 C 
ATOM      5  O   UNL A   1      -7.955  27.815  59.138  1.00  0.00    -0.300 OA
ENDBRANCH   2   3
ENDBRANCH   1   2
BRANCH   1   6
ATOM      6  C   UNL A   1      -7.993  25.604  56.336  1.00  0.00    -0.040 A 
ATOM      7  C   UNL A   1      -7.977  24.199  56.490  1.00  0.00     0.004 A 
ATOM      8  C   UNL A   1      -6.928  26.214  55.644  1.00  0.00     0.004 A 
ATOM      9  C   UNL A   1      -6.930  23.439  55.962  1.00  0.00     0.000 A 
ATOM     10  C   UNL A   1      -5.885  25.447  55.119  1.00  0.00     0.000 A 
ATOM     11  C   UNL A   1      -5.886  24.061  55.277  1.00  0.00     0.000 A 
ENDBRANCH   1   6
BRANCH   1  12
ATOM     12  C   UNL A   1     -10.337  26.625  55.954  1.00  0.00     0.088 A 
ATOM     13  C   UNL A   1     -10.356  27.695  55.003  1.00  0.00     0.137 A 
ATOM     14  C   UNL A   1     -11.490  25.789  55.981  1.00  0.00     0.343 A 
ATOM     15  C   UNL A   1     -11.445  27.841  54.128  1.00  0.00     0.060 A 
ATOM     16  O   UNL A   1     -12.493  25.974  55.132  1.00  0.00    -0.422 OA
ATOM     17  O   UNL A   1     -11.607  24.898  56.793  1.00  0.00    -0.246 OA
ATOM     18  C   UNL A   1     -12.514  26.933  54.224  1.00  0.00     0.142 A 
ATOM     19  C   UNL A   1     -11.498  28.868  53.164  1.00  0.00     0.016 A 
ATOM     20  C   UNL A   1     -13.616  27.050  53.367  1.00  0.00     0.048 A 
ATOM     21  C   UNL A   1     -12.601  28.977  52.313  1.00  0.00     0.001 A 
ATOM     22  C   UNL A   1     -13.658  28.068  52.413  1.00  0.00     0.004 A 
BRANCH  13  23
ATOM     23  O   UNL A   1      -9.352  28.603  54.917  1.00  0.00    -0.507 OA
ATOM     24  H   UNL A   1      -9.397  29.446  54.452  1.00  0.00     0.293 HD
ENDBRANCH  13  23
ENDBRANCH   1  12
TORSDOF 5
ENDMDL
MODEL 2
REMARK VINA RESULT:   -10.455      1.998      3.081
REMARK INTER + INTRA:         -13.854
REMARK INTER:                 -13.248
REMARK INTRA:                  -0.605
REMARK UNBOUND:                -0.649
REMARK SMILES CC(=O)C[C@@H](c1ccccc1)c1c(O)c2ccccc2oc1=O
REMARK SMILES IDX 5 1 4 2 2 3 1 4 3 5 6 6 7 7 11 8 8 9 10 10 9 11 12 12 13 13
REMARK SMILES IDX 22 14 15 15 21 16 23 17 20 18 16 19 19 20 17 21 18 22 14 23
REMARK H PARENT 14 24
REMARK Flexibility Score: inf
ROOT
ATOM      1  C   UNL A   1      -7.164  24.680  58.597  1.00  0.00     0.068 C 
ENDROOT
BRANCH   1   2
ATOM      2  C   UNL A   1      -7.299  24.275  60.101  1.00  0.00     0.088 C 
BRANCH   2   3
ATOM      3  C   UNL A   1      -7.020  25.391  61.104  1.00  0.00     0.130 C 
ATOM      4  C   UNL A   1      -8.008  26.460  61.464  1.00  0.00     0.087 C 
ATOM      5  O   UNL A   1      -5.932  25.408  61.661  1.00  0.00    -0.300 OA
ENDBRANCH   2   3
ENDBRANCH   1   2
BRANCH   1   6
ATOM      6  C   UNL A   1      -6.339  23.600  57.883  1.00  0.00    -0.040 A 
ATOM      7  C   UNL A   1      -6.869  22.809  56.837  1.00  0.00     0.004 A 
ATOM      8  C   UNL A   1      -5.008  23.371  58.285  1.00  0.00     0.004 A 
ATOM      9  C   UNL A   1      -6.085  21.830  56.219  1.00  0.00     0.000 A 
ATOM     10  C   UNL A   1      -4.231  22.391  57.662  1.00  0.00     0.000 A 
ATOM     11  C   UNL A   1      -4.768  21.622  56.630  1.00  0.00     0.000 A 
ENDBRANCH   1   6
BRANCH   1  12
ATOM     12  C   UNL A   1      -8.433  25.113  57.811  1.00  0.00     0.088 A 
ATOM     13  C   UNL A   1      -8.341  26.199  56.884  1.00  0.00     0.137 A 
ATOM     14  C   UNL A   1      -9.725  24.536  57.977  1.00  0.00     0.343 A 
ATOM     15  C   UNL A   1      -9.473  26.605  56.159  1.00  0.00     0.060 A 
ATOM     16  O   UNL A   1     -10.763  24.960  57.266  1.00  0.00    -0.422 OA
ATOM     17  O   UNL A   1      -9.928  23.658  58.785  1.00  0.00    -0.246 OA
ATOM     18  C   UNL A   1     -10.691  25.938  56.380  1.00  0.00     0.142 A 
ATOM     19  C   UNL A   1      -9.426  27.657  55.223  1.00  0.00     0.016 A 
ATOM     20  C   UNL A   1     -11.839  26.316  55.674  1.00  0.00     0.048 A 
ATOM     21  C   UNL A   1     -10.576  28.028  54.522  1.00  0.00     0.001 A 
ATOM     22  C   UNL A   1     -11.781  27.357  54.745  1.00  0.00     0.004 A 
BRANCH  13  23
ATOM     23  O   UNL A   1      -7.186  26.880  56.681  1.00  0.00    -0.507 OA
ATOM     24  H   UNL A   1      -6.298  26.539  56.840  1.00  0.00     0.293 HD
ENDBRANCH  13  23
ENDBRANCH   1  12
TORSDOF 5
ENDMDL
MODEL 3
REMARK VINA RESULT:   -10.349      1.277      2.606
REMARK INTER + INTRA:         -13.720
REMARK INTER:                 -13.211
REMARK INTRA:                  -0.509
REMARK UNBOUND:                -0.649
REMARK SMILES CC(=O)C[C@@H](c1ccccc1)c1c(O)c2ccccc2oc1=O
REMARK SMILES IDX 5 1 4 2 2 3 1 4 3 5 6 6 7 7 11 8 8 9 10 10 9 11 12 12 13 13
REMARK SMILES IDX 22 14 15 15 21 16 23 17 20 18 16 19 19 20 17 21 18 22 14 23
REMARK H PARENT 14 24
REMARK Flexibility Score: inf
ROOT
ATOM      1  C   UNL A   1      -8.500  25.827  57.502  1.00  0.00     0.068 C 
ENDROOT
BRANCH   1   2
ATOM      2  C   UNL A   1      -9.299  25.189  58.684  1.00  0.00     0.088 C 
BRANCH   2   3
ATOM      3  C   UNL A   1      -8.931  25.705  60.073  1.00  0.00     0.130 C 
ATOM      4  C   UNL A   1      -8.798  27.158  60.419  1.00  0.00     0.087 C 
ATOM      5  O   UNL A   1      -8.749  24.888  60.963  1.00  0.00    -0.300 OA
ENDBRANCH   2   3
ENDBRANCH   1   2
BRANCH   1   6
ATOM      6  C   UNL A   1      -7.546  24.764  56.939  1.00  0.00    -0.040 A 
ATOM      7  C   UNL A   1      -6.781  24.975  55.769  1.00  0.00     0.004 A 
ATOM      8  C   UNL A   1      -7.432  23.524  57.598  1.00  0.00     0.004 A 
ATOM      9  C   UNL A   1      -5.931  23.976  55.286  1.00  0.00     0.000 A 
ATOM     10  C   UNL A   1      -6.580  22.530  57.109  1.00  0.00     0.000 A 
ATOM     11  C   UNL A   1      -5.830  22.756  55.955  1.00  0.00     0.000 A 
ENDBRANCH   1   6
BRANCH   1  12
ATOM     12  C   UNL A   1      -9.269  26.615  56.405  1.00  0.00     0.088 A 
ATOM     13  C   UNL A   1     -10.499  26.083  55.900  1.00  0.00     0.137 A 
ATOM     14  C   UNL A   1      -8.817  27.826  55.809  1.00  0.00     0.343 A 
ATOM     15  C   UNL A   1     -11.214  26.780  54.911  1.00  0.00     0.060 A 
ATOM     16  O   UNL A   1      -9.532  28.442  54.876  1.00  0.00    -0.422 OA
ATOM     17  O   UNL A   1      -7.756  28.325  56.114  1.00  0.00    -0.246 OA
ATOM     18  C   UNL A   1     -10.686  27.987  54.421  1.00  0.00     0.142 A 
ATOM     19  C   UNL A   1     -12.437  26.305  54.398  1.00  0.00     0.016 A 
ATOM     20  C   UNL A   1     -11.373  28.707  53.436  1.00  0.00     0.048 A 
ATOM     21  C   UNL A   1     -13.117  27.029  53.415  1.00  0.00     0.001 A 
ATOM     22  C   UNL A   1     -12.587  28.230  52.936  1.00  0.00     0.004 A 
BRANCH  13  23
ATOM     23  O   UNL A   1     -11.009  24.903  56.332  1.00  0.00    -0.507 OA
ATOM     24  H   UNL A   1     -10.761  24.450  57.146  1.00  0.00     0.293 HD
ENDBRANCH  13  23
ENDBRANCH   1  12
TORSDOF 5
ENDMDL
MODEL 4
REMARK VINA RESULT:    -9.927      1.271      3.319
REMARK INTER + INTRA:         -13.187
REMARK INTER:                 -12.880
REMARK INTRA:                  -0.308
REMARK UNBOUND:                -0.649
REMARK SMILES CC(=O)C[C@@H](c1ccccc1)c1c(O)c2ccccc2oc1=O
REMARK SMILES IDX 5 1 4 2 2 3 1 4 3 5 6 6 7 7 11 8 8 9 10 10 9 11 12 12 13 13
REMARK SMILES IDX 22 14 15 15 21 16 23 17 20 18 16 19 19 20 17 21 18 22 14 23
REMARK H PARENT 14 24
REMARK Flexibility Score: inf
ROOT
ATOM      1  C   UNL A   1      -8.828  25.882  56.563  1.00  0.00     0.068 C 
ENDROOT
BRANCH   1   2
ATOM      2  C   UNL A   1      -7.449  26.318  55.970  1.00  0.00     0.088 C 
BRANCH   2   3
ATOM      3  C   UNL A   1      -6.484  25.178  55.657  1.00  0.00     0.130 C 
ATOM      4  C   UNL A   1      -6.791  23.730  55.900  1.00  0.00     0.087 C 
ATOM      5  O   UNL A   1      -5.401  25.457  55.163  1.00  0.00    -0.300 OA
ENDBRANCH   2   3
ENDBRANCH   1   2
BRANCH   1   6
ATOM      6  C   UNL A   1      -8.876  26.318  58.035  1.00  0.00    -0.040 A 
ATOM      7  C   UNL A   1      -8.665  27.657  58.436  1.00  0.00     0.004 A 
ATOM      8  C   UNL A   1      -9.125  25.354  59.031  1.00  0.00     0.004 A 
ATOM      9  C   UNL A   1      -8.709  28.010  59.787  1.00  0.00     0.000 A 
ATOM     10  C   UNL A   1      -9.168  25.714  60.380  1.00  0.00     0.000 A 
ATOM     11  C   UNL A   1      -8.961  27.041  60.759  1.00  0.00     0.000 A 
ENDBRANCH   1   6
BRANCH   1  12
ATOM     12  C   UNL A   1     -10.129  26.207  55.777  1.00  0.00     0.088 A 
ATOM     13  C   UNL A   1     -10.136  27.317  54.873  1.00  0.00     0.137 A 
ATOM     14  C   UNL A   1     -11.360  25.506  55.921  1.00  0.00     0.343 A 
ATOM     15  C   UNL A   1     -11.299  27.626  54.148  1.00  0.00     0.060 A 
ATOM     16  O   UNL A   1     -12.430  25.842  55.211  1.00  0.00    -0.422 OA
ATOM     17  O   UNL A   1     -11.481  24.595  56.710  1.00  0.00    -0.246 OA
ATOM     18  C   UNL A   1     -12.447  26.841  54.346  1.00  0.00     0.142 A 
ATOM     19  C   UNL A   1     -11.348  28.698  53.233  1.00  0.00     0.016 A 
ATOM     20  C   UNL A   1     -13.623  27.122  53.640  1.00  0.00     0.048 A 
ATOM     21  C   UNL A   1     -12.525  28.971  52.532  1.00  0.00     0.001 A 
ATOM     22  C   UNL A   1     -13.661  28.183  52.733  1.00  0.00     0.004 A 
BRANCH  13  23
ATOM     23  O   UNL A   1      -9.051  28.110  54.692  1.00  0.00    -0.507 OA
ATOM     24  H   UNL A   1      -8.159  27.803  54.494  1.00  0.00     0.293 HD
ENDBRANCH  13  23
ENDBRANCH   1  12
TORSDOF 5
ENDMDL
MODEL 5
REMARK VINA RESULT:    -9.861      2.183      3.740
REMARK INTER + INTRA:         -13.104
REMARK INTER:                 -12.614
REMARK INTRA:                  -0.491
REMARK UNBOUND:                -0.649
REMARK SMILES CC(=O)C[C@@H](c1ccccc1)c1c(O)c2ccccc2oc1=O
REMARK SMILES IDX 5 1 4 2 2 3 1 4 3 5 6 6 7 7 11 8 8 9 10 10 9 11 12 12 13 13
REMARK SMILES IDX 22 14 15 15 21 16 23 17 20 18 16 19 19 20 17 21 18 22 14 23
REMARK H PARENT 14 24
REMARK Flexibility Score: inf
ROOT
ATOM      1  C   UNL A   1      -6.993  24.947  58.305  1.00  0.00     0.068 C 
ENDROOT
BRANCH   1   2
ATOM      2  C   UNL A   1      -7.151  24.308  59.723  1.00  0.00     0.088 C 
BRANCH   2   3
ATOM      3  C   UNL A   1      -7.040  25.282  60.893  1.00  0.00     0.130 C 
ATOM      4  C   UNL A   1      -8.143  26.204  61.323  1.00  0.00     0.087 C 
ATOM      5  O   UNL A   1      -5.997  25.304  61.531  1.00  0.00    -0.300 OA
ENDBRANCH   2   3
ENDBRANCH   1   2
BRANCH   1   6
ATOM      6  C   UNL A   1      -6.239  23.950  57.412  1.00  0.00    -0.040 A 
ATOM      7  C   UNL A   1      -5.776  24.290  56.121  1.00  0.00     0.004 A 
ATOM      8  C   UNL A   1      -6.007  22.643  57.883  1.00  0.00     0.004 A 
ATOM      9  C   UNL A   1      -5.102  23.350  55.337  1.00  0.00     0.000 A 
ATOM     10  C   UNL A   1      -5.332  21.708  57.094  1.00  0.00     0.000 A 
ATOM     11  C   UNL A   1      -4.879  22.061  55.823  1.00  0.00     0.000 A 
ENDBRANCH   1   6
BRANCH   1  12
ATOM     12  C   UNL A   1      -8.233  25.582  57.617  1.00  0.00     0.088 A 
ATOM     13  C   UNL A   1      -9.505  24.937  57.744  1.00  0.00     0.137 A 
ATOM     14  C   UNL A   1      -8.200  26.754  56.810  1.00  0.00     0.343 A 
ATOM     15  C   UNL A   1     -10.641  25.496  57.135  1.00  0.00     0.060 A 
ATOM     16  O   UNL A   1      -9.305  27.238  56.255  1.00  0.00    -0.422 OA
ATOM     17  O   UNL A   1      -7.164  27.338  56.582  1.00  0.00    -0.246 OA
ATOM     18  C   UNL A   1     -10.495  26.678  56.389  1.00  0.00     0.142 A 
ATOM     19  C   UNL A   1     -11.916  24.907  57.247  1.00  0.00     0.016 A 
ATOM     20  C   UNL A   1     -11.606  27.262  55.769  1.00  0.00     0.048 A 
ATOM     21  C   UNL A   1     -13.021  25.496  56.626  1.00  0.00     0.001 A 
ATOM     22  C   UNL A   1     -12.867  26.673  55.889  1.00  0.00     0.004 A 
BRANCH  13  23
ATOM     23  O   UNL A   1      -9.663  23.778  58.429  1.00  0.00    -0.507 OA
ATOM     24  H   UNL A   1      -9.083  23.456  59.128  1.00  0.00     0.293 HD
ENDBRANCH  13  23
ENDBRANCH   1  12
TORSDOF 5
ENDMDL
MODEL 6
REMARK VINA RESULT:    -9.682      2.144      6.411
REMARK INTER + INTRA:         -12.877
REMARK INTER:                 -12.334
REMARK INTRA:                  -0.544
REMARK UNBOUND:                -0.649
REMARK SMILES CC(=O)C[C@@H](c1ccccc1)c1c(O)c2ccccc2oc1=O
REMARK SMILES IDX 5 1 4 2 2 3 1 4 3 5 6 6 7 7 11 8 8 9 10 10 9 11 12 12 13 13
REMARK SMILES IDX 22 14 15 15 21 16 23 17 20 18 16 19 19 20 17 21 18 22 14 23
REMARK H PARENT 14 24
REMARK Flexibility Score: inf
ROOT
ATOM      1  C   UNL A   1      -8.424  26.206  57.203  1.00  0.00     0.068 C 
ENDROOT
BRANCH   1   2
ATOM      2  C   UNL A   1      -8.019  27.505  57.972  1.00  0.00     0.088 C 
BRANCH   2   3
ATOM      3  C   UNL A   1      -8.553  27.612  59.398  1.00  0.00     0.130 C 
ATOM      4  C   UNL A   1      -8.435  26.522  60.421  1.00  0.00     0.087 C 
ATOM      5  O   UNL A   1      -9.098  28.653  59.734  1.00  0.00    -0.300 OA
ENDBRANCH   2   3
ENDBRANCH   1   2
BRANCH   1   6
ATOM      6  C   UNL A   1      -9.568  26.557  56.240  1.00  0.00    -0.040 A 
ATOM      7  C   UNL A   1      -9.529  27.692  55.398  1.00  0.00     0.004 A 
ATOM      8  C   UNL A   1     -10.709  25.732  56.196  1.00  0.00     0.004 A 
ATOM      9  C   UNL A   1     -10.596  27.980  54.543  1.00  0.00     0.000 A 
ATOM     10  C   UNL A   1     -11.772  26.026  55.338  1.00  0.00     0.000 A 
ATOM     11  C   UNL A   1     -11.715  27.148  54.512  1.00  0.00     0.000 A 
ENDBRANCH   1   6
BRANCH   1  12
ATOM     12  C   UNL A   1      -7.315  25.330  56.556  1.00  0.00     0.088 A 
ATOM     13  C   UNL A   1      -7.044  24.035  57.102  1.00  0.00     0.137 A 
ATOM     14  C   UNL A   1      -6.491  25.738  55.468  1.00  0.00     0.343 A 
ATOM     15  C   UNL A   1      -6.050  23.224  56.531  1.00  0.00     0.060 A 
ATOM     16  O   UNL A   1      -5.564  24.931  54.968  1.00  0.00    -0.422 OA
ATOM     17  O   UNL A   1      -6.591  26.841  54.977  1.00  0.00    -0.246 OA
ATOM     18  C   UNL A   1      -5.322  23.719  55.435  1.00  0.00     0.142 A 
ATOM     19  C   UNL A   1      -5.761  21.935  57.023  1.00  0.00     0.016 A 
ATOM     20  C   UNL A   1      -4.324  22.937  54.841  1.00  0.00     0.048 A 
ATOM     21  C   UNL A   1      -4.764  21.161  56.424  1.00  0.00     0.001 A 
ATOM     22  C   UNL A   1      -4.047  21.660  55.334  1.00  0.00     0.004 A 
BRANCH  13  23
ATOM     23  O   UNL A   1      -7.710  23.551  58.180  1.00  0.00    -0.507 OA
ATOM     24  H   UNL A   1      -7.329  23.397  59.051  1.00  0.00     0.293 HD
ENDBRANCH  13  23
ENDBRANCH   1  12
TORSDOF 5
ENDMDL
MODEL 7
REMARK VINA RESULT:    -9.524      1.424      4.163
REMARK INTER + INTRA:         -12.678
REMARK INTER:                 -12.024
REMARK INTRA:                  -0.654
REMARK UNBOUND:                -0.649
REMARK SMILES CC(=O)C[C@@H](c1ccccc1)c1c(O)c2ccccc2oc1=O
REMARK SMILES IDX 5 1 4 2 2 3 1 4 3 5 6 6 7 7 11 8 8 9 10 10 9 11 12 12 13 13
REMARK SMILES IDX 22 14 15 15 21 16 23 17 20 18 16 19 19 20 17 21 18 22 14 23
REMARK H PARENT 14 24
REMARK Flexibility Score: inf
ROOT
ATOM      1  C   UNL A   1      -8.505  25.493  57.303  1.00  0.00     0.068 C 
ENDROOT
BRANCH   1   2
ATOM      2  C   UNL A   1      -7.039  25.041  57.006  1.00  0.00     0.088 C 
BRANCH   2   3
ATOM      3  C   UNL A   1      -6.837  24.309  55.682  1.00  0.00     0.130 C 
ATOM      4  C   UNL A   1      -5.955  24.804  54.576  1.00  0.00     0.087 C 
ATOM      5  O   UNL A   1      -7.417  23.245  55.516  1.00  0.00    -0.300 OA
ENDBRANCH   2   3
ENDBRANCH   1   2
BRANCH   1   6
ATOM      6  C   UNL A   1      -8.554  26.052  58.733  1.00  0.00    -0.040 A 
ATOM      7  C   UNL A   1      -8.773  27.422  59.003  1.00  0.00     0.004 A 
ATOM      8  C   UNL A   1      -8.361  25.178  59.821  1.00  0.00     0.004 A 
ATOM      9  C   UNL A   1      -8.802  27.891  60.320  1.00  0.00     0.000 A 
ATOM     10  C   UNL A   1      -8.391  25.653  61.134  1.00  0.00     0.000 A 
ATOM     11  C   UNL A   1      -8.612  27.008  61.384  1.00  0.00     0.000 A 
ENDBRANCH   1   6
BRANCH   1  12
ATOM     12  C   UNL A   1      -9.251  26.377  56.265  1.00  0.00     0.088 A 
ATOM     13  C   UNL A   1     -10.571  26.003  55.854  1.00  0.00     0.137 A 
ATOM     14  C   UNL A   1      -8.700  27.529  55.636  1.00  0.00     0.343 A 
ATOM     15  C   UNL A   1     -11.266  26.789  54.921  1.00  0.00     0.060 A 
ATOM     16  O   UNL A   1      -9.402  28.235  54.758  1.00  0.00    -0.422 OA
ATOM     17  O   UNL A   1      -7.566  27.892  55.861  1.00  0.00    -0.246 OA
ATOM     18  C   UNL A   1     -10.633  27.927  54.391  1.00  0.00     0.142 A 
ATOM     19  C   UNL A   1     -12.573  26.471  54.500  1.00  0.00     0.016 A 
ATOM     20  C   UNL A   1     -11.298  28.733  53.459  1.00  0.00     0.048 A 
ATOM     21  C   UNL A   1     -13.230  27.281  53.570  1.00  0.00     0.001 A 
ATOM     22  C   UNL A   1     -12.594  28.412  53.051  1.00  0.00     0.004 A 
BRANCH  13  23
ATOM     23  O   UNL A   1     -11.187  24.891  56.325  1.00  0.00    -0.507 OA
ATOM     24  H   UNL A   1     -11.839  24.869  57.034  1.00  0.00     0.293 HD
ENDBRANCH  13  23
ENDBRANCH   1  12
TORSDOF 5
ENDMDL
MODEL 8
REMARK VINA RESULT:    -9.507      2.630      6.691
REMARK INTER + INTRA:         -12.657
REMARK INTER:                 -12.438
REMARK INTRA:                  -0.219
REMARK UNBOUND:                -0.649
REMARK SMILES CC(=O)C[C@@H](c1ccccc1)c1c(O)c2ccccc2oc1=O
REMARK SMILES IDX 5 1 4 2 2 3 1 4 3 5 6 6 7 7 11 8 8 9 10 10 9 11 12 12 13 13
REMARK SMILES IDX 22 14 15 15 21 16 23 17 20 18 16 19 19 20 17 21 18 22 14 23
REMARK H PARENT 14 24
REMARK Flexibility Score: inf
ROOT
ATOM      1  C   UNL A   1      -9.749  24.635  57.429  1.00  0.00     0.068 C 
ENDROOT
BRANCH   1   2
ATOM      2  C   UNL A   1     -10.716  24.865  58.635  1.00  0.00     0.088 C 
BRANCH   2   3
ATOM      3  C   UNL A   1     -11.949  23.966  58.662  1.00  0.00     0.130 C 
ATOM      4  C   UNL A   1     -13.260  24.322  58.025  1.00  0.00     0.087 C 
ATOM      5  O   UNL A   1     -11.863  22.884  59.223  1.00  0.00    -0.300 OA
ENDBRANCH   2   3
ENDBRANCH   1   2
BRANCH   1   6
ATOM      6  C   UNL A   1      -9.808  25.875  56.525  1.00  0.00    -0.040 A 
ATOM      7  C   UNL A   1      -8.723  26.773  56.397  1.00  0.00     0.004 A 
ATOM      8  C   UNL A   1     -10.987  26.145  55.802  1.00  0.00     0.004 A 
ATOM      9  C   UNL A   1      -8.822  27.895  55.570  1.00  0.00     0.000 A 
ATOM     10  C   UNL A   1     -11.078  27.268  54.976  1.00  0.00     0.000 A 
ATOM     11  C   UNL A   1      -9.997  28.142  54.859  1.00  0.00     0.000 A 
ENDBRANCH   1   6
BRANCH   1  12
ATOM     12  C   UNL A   1      -8.303  24.134  57.701  1.00  0.00     0.088 A 
ATOM     13  C   UNL A   1      -7.540  23.590  56.618  1.00  0.00     0.137 A 
ATOM     14  C   UNL A   1      -7.675  24.124  58.979  1.00  0.00     0.343 A 
ATOM     15  C   UNL A   1      -6.230  23.135  56.839  1.00  0.00     0.060 A 
ATOM     16  O   UNL A   1      -6.434  23.680  59.132  1.00  0.00    -0.422 OA
ATOM     17  O   UNL A   1      -8.258  24.497  59.974  1.00  0.00    -0.246 OA
ATOM     18  C   UNL A   1      -5.700  23.207  58.140  1.00  0.00     0.142 A 
ATOM     19  C   UNL A   1      -5.435  22.610  55.801  1.00  0.00     0.016 A 
ATOM     20  C   UNL A   1      -4.397  22.763  58.395  1.00  0.00     0.048 A 
ATOM     21  C   UNL A   1      -4.135  22.169  56.064  1.00  0.00     0.001 A 
ATOM     22  C   UNL A   1      -3.616  22.247  57.359  1.00  0.00     0.004 A 
BRANCH  13  23
ATOM     23  O   UNL A   1      -8.042  23.479  55.364  1.00  0.00    -0.507 OA
ATOM     24  H   UNL A   1      -8.918  23.766  55.083  1.00  0.00     0.293 HD
ENDBRANCH  13  23
ENDBRANCH   1  12
TORSDOF 5
ENDMDL
MODEL 9
REMARK VINA RESULT:    -9.480      1.727      5.687
REMARK INTER + INTRA:         -12.623
REMARK INTER:                 -12.292
REMARK INTRA:                  -0.331
REMARK UNBOUND:                -0.649
REMARK SMILES CC(=O)C[C@@H](c1ccccc1)c1c(O)c2ccccc2oc1=O
REMARK SMILES IDX 5 1 4 2 2 3 1 4 3 5 6 6 7 7 11 8 8 9 10 10 9 11 12 12 13 13
REMARK SMILES IDX 22 14 15 15 21 16 23 17 20 18 16 19 19 20 17 21 18 22 14 23
REMARK H PARENT 14 24
REMARK Flexibility Score: inf
ROOT
ATOM      1  C   UNL A   1      -9.794  26.344  57.489  1.00  0.00     0.068 C 
ENDROOT
BRANCH   1   2
ATOM      2  C   UNL A   1      -9.342  27.680  58.163  1.00  0.00     0.088 C 
BRANCH   2   3
ATOM      3  C   UNL A   1      -8.653  27.527  59.516  1.00  0.00     0.130 C 
ATOM      4  C   UNL A   1      -9.171  26.662  60.627  1.00  0.00     0.087 C 
ATOM      5  O   UNL A   1      -7.609  28.133  59.705  1.00  0.00    -0.300 OA
ENDBRANCH   2   3
ENDBRANCH   1   2
BRANCH   1   6
ATOM      6  C   UNL A   1     -10.557  26.691  56.202  1.00  0.00    -0.040 A 
ATOM      7  C   UNL A   1     -10.219  27.803  55.397  1.00  0.00     0.004 A 
ATOM      8  C   UNL A   1     -11.644  25.886  55.808  1.00  0.00     0.004 A 
ATOM      9  C   UNL A   1     -10.945  28.088  54.237  1.00  0.00     0.000 A 
ATOM     10  C   UNL A   1     -12.365  26.177  54.647  1.00  0.00     0.000 A 
ATOM     11  C   UNL A   1     -12.016  27.277  53.862  1.00  0.00     0.000 A 
ENDBRANCH   1   6
BRANCH   1  12
ATOM     12  C   UNL A   1      -8.760  25.198  57.308  1.00  0.00     0.088 A 
ATOM     13  C   UNL A   1      -7.733  25.338  56.320  1.00  0.00     0.137 A 
ATOM     14  C   UNL A   1      -8.778  23.969  58.025  1.00  0.00     0.343 A 
ATOM     15  C   UNL A   1      -6.784  24.317  56.142  1.00  0.00     0.060 A 
ATOM     16  O   UNL A   1      -7.857  23.036  57.815  1.00  0.00    -0.422 OA
ATOM     17  O   UNL A   1      -9.645  23.720  58.834  1.00  0.00    -0.246 OA
ATOM     18  C   UNL A   1      -6.881  23.160  56.934  1.00  0.00     0.142 A 
ATOM     19  C   UNL A   1      -5.745  24.418  55.195  1.00  0.00     0.016 A 
ATOM     20  C   UNL A   1      -5.952  22.123  56.782  1.00  0.00     0.048 A 
ATOM     21  C   UNL A   1      -4.822  23.380  55.050  1.00  0.00     0.001 A 
ATOM     22  C   UNL A   1      -4.923  22.234  55.844  1.00  0.00     0.004 A 
BRANCH  13  23
ATOM     23  O   UNL A   1      -7.641  26.429  55.521  1.00  0.00    -0.507 OA
ATOM     24  H   UNL A   1      -7.139  27.228  55.718  1.00  0.00     0.293 HD
ENDBRANCH  13  23
ENDBRANCH   1  12
TORSDOF 5
ENDMDL
